ds_ons_122023_rv0d29/pesada.pwf
TITU
ONS PDPM Novembro 2023 - PESADA                                                 
DAGR
(AG (         D E S C R I C A O        )
  6 SUBMERCADOS DO SIN                   
(ID O (       Nome de Identificacao      )
  1   SUDESTE/CENTRO-OESTE                 
  2   SUL                                  
  3   NORDESTE                             
  4   NORTE                                
FAGR
99999
DOPC IMPR
(Op) E (Op) E (Op) E (Op) E (Op) E (Op) E (Op) E (Op) E (Op) E (Op) E
STEP L NEWT L RCVG L RMON L FILE L SUBS L CONT L NOVO L CELO L MFCT L
AREG L STPO L VLCR L CPHS L IANG L
99999
DCTE
(Mn) ( Val) (Mn) ( Val) (Mn) ( Val) (Mn) ( Val) (Mn) ( Val) (Mn) ( Val) 
BASE   100. DASE   100. TEPA    .01 EXST    .04 TETP     5. TBPA     5.
TLPP     1. TEPR    .01 QLST    .04 TLPR    .01 TLPQ     2. TSBZ    .01
TSBA     5. ASTP    .05 VSTP     5. TLVC    .05 TLTC    .01 TSFR  .1E-7
ZMAX   500. TLPV     .5 VDVM   200. VDVN    40. TUDC   .001 TADC    .01
PGER    30. TPST    .02 VFLD    70. ZMIN  .9E-4 HIST    470 LFIT     10
ACIT    100 LFCV      1 DCIT     10 VSIT     10 LPIT     50 LFLP     10
PDIT     10 LCRT    200 LPRT     60 CSTP     5. ASDC     1.
ICIT     50 DMAX      5 FDIV     2. ICMN    .05 VART     5. TSTP     32
ICMV     .5 APAS    90. CPAR    70. VAVT     2. VAVF     5. VMVF    15.
VPVT     2. VPVF     5. VPMF    10. VSVF    20. VINF     1. VSUP     1.
TLSI     0. NDIR    20. STTR     5. TRPT   100. STIR     1. BFPO     1.
LFPO     .1 TLMT     0. TLMF     0. TLMG     0. PARS    10.            
99999
DBAR
(Num)OETGb(   nome   )Gl( V)( A)( Pg)( Qg)( Qn)( Qm)(Bc  )( Pl)( Ql)( Sh)Are(Vf)M(1)(2)(3)(4)(5)(6)(7)(8)(9)(10
   10 L1 VANGRA1UNE000 5 97627.3      -32.   0.   0.        32. 15.5     2211000                  1                
   11 L1 VANGRA2UNE001 5 980 35.     33.18-350. 600.                     2211000                  1                
   12 L1 VLCBARRUHE006 5 96740.7     -339.-540. 420.                     2041000                  1                
   13 L1 TLCBARRSI-000 5100435.6     2.472   0.   0.                     2041000                  1                
   14 L1 VFUNIL-UHE002 5 96329.2     -77.2-100. 100.                     2251000                  1                
   16 L1 VFURNASUHE008 5101734.8     122.5-400. 400.                     1891000                  1                
   17 L1 TFURNASSI-000 5 99928.4     -16.4   0.   0.                     1891000                  1                
   18 L1 VITUMBIUHE006 5 96444.1     36.82-546. 600.                     1881000                  1                
   19 L1 TITUMBISI-000 5 99735.8     114.2   0.   0.                     1881000                  1                
   20 L1 VMARIMBUHE008 5102545.5     -420.-640. 640.                     1881000                  1                
   21 L1 VMANSO-UHE002 5 96233.8     -16.1 -40.  42.                     1371000                  1                
   22 L1 VM.MORAUHE006 5 99441.5     -17.6-120. 126.                     1891000                  1                
   23 L1 TCBRAV-SI-000 5 986 23.     27.47   0.   0.                     1491000                  1                
   24 L1 VM.MORBUHE004 5 97541.4     43.88 -24.  62.                     2081000                  1                
   27 L  CCPAUL2-SP500 3107827.7                                         2021000                  1                
   28 L1 VPCOLOMUHE004 5 97857.2     -34.5-100. 100.                     2081000                  1                
   30 L1 VSCRU19UTE000 5 99916.6     -16.7   0.   0.                     2241000                  1                
   31 L1 VSCRU31UT3001 5 99916.6     -5.25   0.   0.                     2241000                  1                
   32 L1 VSCRU16UTE000 5 99916.6     -7.28   0.   0.                     2241000                  1                
   35 L1 VCORUMBUHE003 5 96537.6     90.51-180. 180.                     1481000                  1                
   36 L1 VS.MESAUHE003 5 95114.8     426.9-480. 480.                     1471000                  1                
   37 L1 TS.MESASI-000 5 9889.88     275.8   0.   0.                     1471000                  1                
   38 L1 NGRAJA2SI-1CS 5100717.5     -27.5-120. 200.                     2211000                  1                
   41 L1 TVITOR2SI-1CS 51002 -5.     5.154 -30.  60.                     2341000                  1                
   44 L1 NGRAJA1SI-1CS 5100717.5     -27.6-120. 200.                     2211000                  1                
   46 L 08CAMPO-CER015 610422.69                                         2221096                  1                
   47 L1 TVITOR1SI-1CS 51002 -5.     5.535 -30.  60.                     2341000                  1                
   48 L1 QIBIUNASI-4CS 5 98722.9     -410.-720.1200.    86               2041000                  1                
   50 L1 QTPRETOSI-1CS 5 98120.2     9.206-180. 300.                     2011000                  1                
   52 L  EP.ACU--RJ345 510202.69                                         2221000                  1                
   53 L1 QGNA1G-UTE000 5 9732.69     27.99   0.   0.                     2221000                  1                
   54 L1 QGNA1V-UTE000 5 9732.69     20.84   0.   0.                     2221000                  1                
   56 L  IIVAIP3-PR069 6 91442.7                                         2011000                  1                
   57 L  IIVAIP2-PR069 6 91142.8                                         201 960                  1                
   58 L  UIVAIP2-PR000 6103042.8                                         201 960                  1                
   59 L  UIVAIP3-PR000 6102542.7                                         2011000                  1                
   60 L  AF.IGUA-PR765 1100451.2                                         2011000                  1                
   61 L  CFOZ60--PR500 3104854.3                                         2401000                  1                
   62 L  AIV-FZ1CAP765 1104035.8                                         2011000                  1                
   63 L  AIV-FZ2CAP765 1104035.8                                         2011000                  1                
   64 L  AIV-FZ3CAP765 1103836.1                                         2011034                  1                
   65 L  AIVAIPO-PR765 1103841.9                                         2011000                  1                
   66 L  BIVAIPA-PR525 2102142.6                                         1011000                  2                
   67 L  IIVAIP1-PR069 6 92242.8                            .24   0.     2011000                  1                
   68 L  UIVAIP1-PR000 6104342.8                                         2011000                  1                
   69 L  AIV-IT1CAP765 1103349.1                                         2011000                  1                
   70 L  AIV-IT2CAP765 1103449.1                                         2011000                  1                
   71 L  AIV-IT3CAP765 1103349.1                                         2011014                  1                
   72 L  AITABER-SP765 1103734.9                                         2011000                  1                
   73 L  AIT-TP1CAP765 1100843.5                                         2011000                  1                
   74 L  AIT-TP2CAP765 1100843.5                                         2011000                  1                
   75 L  AIT-TP3CAP765 1100543.1                                         2011000                  1                
   76 L  ATPRETO-SP765 1 995 27.                                         2011000                  1                
   77 L  CTPRETO-SP500 3104726.7                                         2021000                  1                
   78 L  ETPRETO-SP345 5101320.9                                         2041000                  1                
   79 L  ITPRETO-SP069 6 95026.7                                         2011000                  1                
   80 L  UTPRET3-SP000 6101126.7                                         2011000                  1                
   81 L  UTPRET4-SP000 6 97920.2                                         2011000                  1                
   82 L  ETPRET2-SP345 5100821.1                                         2041000                  1                
   84 L  GRESEN2-RJ138 5100724.5                                         2251000                  1                
   85 L  CFOZ50--PR500 31101-.09                            60.   0.     2411000                  1                
   86 L1 EIBIUNA-SP345 5103022.9     -1034-99999999.                     2041000                  1                
   87 L  CRESEND-RJ500 3107726.5                                         2211000                  1                
   90 L  EVIANA--ES345 5 996-4.2                                         2341010                  1                
   91 L  NVIANT1-ES013 6 987-6.4                                         2341010                  1                
   92 L  CSB-SM1CAP500 3 951 17.                                         1471000                  1                
   93 L  CSB-SM2CAP500 3 96616.2                                         1471000                  1                
   94 L  CSB-SM3CAP500 3 96616.5                                         1471000                  1                
   95 L  NVIANT2-ES013 6 987-6.4                                         2341010                  1                
   96 L  NVIANT3-ES013 6 987-6.4                                         2341000                  1                
   99 L  CAS-AR1-SP500 3107938.5                                         2021000                  1                
  100 L  CMARIMB-MG500 3106338.9                                         1881000                  1                
  101 L  CARARAQ-SP500 3108036.4                                         2021000                  1                
  102 L  CP.CALD-MG500 3107530.4                                         1881000                  1                
  103 L  CCAMPIN-SP500 3107028.3                                         2021000                  1                
  104 L  CC.PAUL-SP500 3109525.2                                         2021000                  1                
  105 L  CANGRA--RJ500 3105927.6                                         2211000                  1                
  106 L  CADRIAN-RJ500 3106522.9                                         2211000                  1                
  107 L  CGRAJAU-RJ500 31064 21.                                         2211000                  1                
  108 L  CS.JOSE-RJ500 3105721.8                                         2211000                  1                
  109 L  CBYPSAD-RJ500 3106522.9                                         2211000                  1                
  110 L  UGR1T52-RJ000 6101517.5                                         2211000                  1                
  112 L  CBA-IB1-PR500 3109934.3                                         1011000                  2                
  113 L  CBA-IB2-PR500 3109934.3                                         1011000                  2                
  114 L  CBA-IT1-PR500 3109934.3                                         1011000                  2                
  115 L  CBA-IT1CAP500 31016 40.                                         1011000                  2                
  116 L  GIMBTAP-RJ138 5100211.5                                         2261000                  1                
  117 D  CCAMPO2-RJ500 31000  0.                                         2211000                  1                
  118 L  UBANDT4-GO000 6 96719.7                                         1481000                  1                
  119 L  NBANDT4-GO013 6 96719.7                                         1481000                  1                
  120 L  EP.CALD-MG345 5100225.1                                         1891000                  1                
  121 L  UPCAT51-MG000 61013 24.                                         1881000                  1                
  122 L  CIBIUNA-SP500 3108827.2                                         2021000                  1                
  123 L  ECAMPIN-SP345 5 98623.8                                         2041000                  1                
  124 L  UCAMP51-SP000 6101922.8                                         2021000                  1                
  125 L  CIB-BA1CAP500 3108119.6                                         2021000                  1                
  126 L  EGUARUL-SP345 5101616.7                                         2041000                  1                
  127 L  EMO-RL1-SP345 5101719.2                                         2041000                  1                
  128 L  EMO-RL2-SP345 5101719.2                                         2041015                  1                
  129 L  EMOGI---SP345 5101418.3                                         2041000                  1                
  130 L  CIB-BA2CAP500 3108119.6                                         2021000                  1                
  131 L  EM.MORA-MG345 5100735.1                                         1891000                  1                
  133 L  UADRT1A-RJ000 6 99413.8                                         2221000                  1                
  134 L  ELCBARR-SP345 5100135.6                                         2041000                  1                
  135 L  UJACT1A-RJ000 6 98614.9                                         2221000                  1                
  136 L  EFURNAS-MG345 5101228.4                                         1891000                  1                
  137 L  UJACT2A-RJ000 6 98614.9                                         2221000                  1                
  138 L  EITUTIN-MG345 5100814.8                                         1891000                  1                
  139 L  UADRT51-RJ000 61006 18.                                         2211014                  1                
  140 L  EADRIAN-RJ345 5101217.2                                         2221000                  1                
  141 L  UADRT53-RJ000 6100915.6                                         2211000                  1                
  142 L  UADRT55-RJ000 61008 16.                                         2211060                  1                
  143 L  UADRT2B-RJ000 6 99513.7                                         2221030                  1                
  144 L  EJACARE-RJ345 5100116.7                                         2221000                  1                
  145 L  UADRT1B-RJ000 6 99413.7                                         2221000                  1                
  146 L  UADRT2A-RJ000 6 99413.7                                         2221000                  1                
  147 L  ECAMPOS-RJ345 510182.69                                         2221000                  1                
  148 L  UCAMPO1-RJ000 61012 .97                                         2221000                  1                
  149 L  EVITORI-ES345 5 993 -5.                                         2341000                  1                
  150 L  UVITAT1-ES000 6 989-7.6                                         2341000                  1                
  152 L  UVITAT2-ES000 6 989-7.6                                         2341000                  1                
  153 L  UVITAT3-ES000 6 987-7.7                                         2341000                  1                
  154 L  NVITAT2-ES013 61023-7.6                                         2341000                  1                
  155 L  NVITAT3-ES013 61021-7.7                                         2341000                  1                
  156 L  NVITAT4-ES013 61017-7.5                                         2341000                  1                
  158 L  UVITAT4-ES000 6 988-7.5                                         2341000                  1                
  159 L  NJA-R30-RJ013 6 95814.9                                         2221000                  1                
  160 L  NJB-R60-RJ013 6 96214.8                                         2221000                  1                
  161 L  FMO-FCE-SP230 5 999 18.                                         2051000                  1                
  162 L  UCAMAT1-SP000 6 98322.1                                         2041000                  1                
  163 L  NCAMPI1-SP013 6 95422.1                                         2041000                  1                
  164 L  UPCAT02-MG000 6105722.4                                         1891000                  1                
  165 L  NP.CAL2-MG013 6 99222.4                                         1891000                  1                
  166 L  UJACT1B-RJ000 6 98714.8                                         2221000                  1                
  167 L  NJA-R60-RJ013 6 95814.9                                         2221000                  1                
  169 L GCSJOSE2-RJ138 5101517.1                                         2241000                  1                
  170 L  GP.CALD-MG138 5103822.8                                         1961000                  1                
  171 L  GCAMPI1-SP138 5102121.9                                         2071000                  1                
  172 L  GIMBARE-RJ138 5100515.2                                         2261000                  1                
  173 L GCADRIAN-RJ138 5102213.8                                         2261000                  1                
  174 L GCR.LEAO-RJ138 510073.91                                         2281000                  1                
  175 L GCCAMPOS-RJ138 510291.06                                         2291000                  1                
  176 L  UCAMP54-SP000 61016 23.                                         2021000                  1                
  177 L  GVITOR1-ES138 51004-7.3                                         2361000                  1                
  178 L GCGRAJAU-RJ138 5100117.7                                         2241000                  1                
  179 L  UGR2T54-RJ000 6101517.5                                         2211000                  1                
  180 L GCJACAR2-RJ138 51005 15.                                         2241000                  1                
  181 L  GANGDEF-RJ138 5100821.2        0.                               2211037                  1                
  182 L  GFUNIL--RJ138 5101224.5                                         2251000                  1                
  183 L  GC.PAUL-SP138 5101124.4                                         2141000                  1                
  184 L GCS.CRUZ-RJ138 5100416.6                                         2241000                  1                
  185 L  GANGRA--RJ138 51049 28.        0.                               2251000                  1                
  186 L  NCAMP54-SP013 61016 23.                                         2021000                  1                
  187 L  GM.MORA-MG138 51030 35.                                         1951000                  1                
  189 L  UBGERT1-DF000 6 9236.47                                         1591000                  1                
  190 L  GP.COL--MG138 5 997 51.                                         2081000                  1                
  192 L  NCAMPO1-RJ013 61012 .97                                         2221000                  1                
  194 L  NADRT55-RJ013 6 924 16.                                         2211080                  1                
  195 L  NADRT53-RJ013 6 92515.6                                         2211000                  1                
  196 L  NCAMP51-SP013 6 93422.8                                         2021000                  1                
  197 L  NADRT51-RJ013 61006 18.                                         2211014                  1                
  198 L  NPCALAT-MG013 6 858 24.                                         1881000                  1                
  199 L  NVITAT1-ES013 61022-7.6                                         2341000                  1                
  200 L  UUCAMP1-RJ000 6 997-2.3                                         2291000                  1                
  201 L  VRSIL-1UTE000 5 997-2.3                                         2291000                  1                
  202 L  UUCAMP2-RJ000 6 997-2.3                                         2291000                  1                
  203 L  VRSIL-2UTE000 5 997-2.3                                         2291000                  1                
  204 L  NADRT1B-RJ013 6 99413.7                                         2221000                  1                
  205 L  NADRT2A-RJ013 6 99413.7                                         2221000                  1                
  206 L  NADRT2B-RJ013 6 99513.7                                         2221030                  1                
  208 L  NBGERT1-DF013 6 9236.47                                         1591000                  1                
  209 L  NADRT1A-RJ013 6 99413.8                                         2221000                  1                
  210 L  CITUMBI-MG500 3102235.8                                         1881000                  1                
  211 L  UCAMPO2-RJ000 61012.945                                         2221000                  1                
  212 L  NCAMPO2-RJ013 61012.945                                         2221000                  1                
  213 L  EMARIMB-MG345 51019 38.                                         1891000                  1                
  214 L  UMARIMB-MG000 6102237.8                                         1881000                  1                
  216 L  EP.COL--MG345 5101537.1                                         1891000                  1                
  217 L  EITUMBI-MG345 5 97432.9                                         1891000                  1                
  218 L  EBANDEI-GO345 5 95320.6                                         1481000                  1                
  219 L  EB.SUL--DF345 5 93112.7                                         1581000                  1                
  220 L  ECORUMB-GO345 5 96831.2                                         1481000                  1                
  221 L  LB.GERA-DF034 510116.73                                         160 991                  1                
  222 L  UBSULT6-DF000 6 93611.1                                         1581000                  1                
  223 L  UBANDT1-GO000 6 96819.6                                         1481000                  1                
  224 L  UBANDT2-GO000 6 96919.6                                         148 987                  1                
  225 L  FITUMBI-MG230 5104432.5                                         1901000                  1                
  226 L  FBANDEI-GO230 5 99019.8                                         1491000                  1                
  227 L  FB.GERA-DF230 5 93511.2                                         1591000                  1                
  228 L  FB.SUL--DF230 5 93511.4                                         1591000                  1                
  229 L  FB.ALTO-GO230 5 987.496                                         1491000                  1                
  230 L  FS.MESA-GO230 5103112.2                                         1491000                  1                
  231 L  FR.VERD-GO230 5100530.1                                         1491000                  1                
  232 L  NBSULT6-DF013 6 93611.1                                         1581000                  1                
  233 L  CSAMAMB-DF500 3 97413.3                                         1571000                  1                
  234 L  ESAMAMB-DF345 5101613.1                                         1581000                  1                
  235 L  CS.MESA-GO500 3 9649.88                                         1471000                  1                
  236 L  GB.SUL--DF138 510198.52                                         1601000                  1                
  237 L  GSAMAMB-DF138 5 985 11.                                         1601000                  1                
  238 L  GR.VERD-GO138 5104427.7                                         1531000                  1                
...
99999
DLIN
(De )d O d(Pa )NcEPM( R% )( X% )(Mvar)(Tap)(Tmn)(Tmx)(Phs)(Bc  )(Cn)(Ce)Ns(Cq)(1)(2)(3)(4)(5)(6)(7)(8)(9)(10
   27        87 1     .051  .782  66.5                          18552337  2337                                
   27      1503 1     .052  .792  66.5                          18552337  2337                                
   27      3010 1     .189 3.158709.66                          24423464  3464                                
   27      3010 2     .189 3.158709.66                          24423464  3464                                
   27      3383 1     .014  .20530.353                          27282728  2728                                
   38       17954         3.0195         1.                     200.200.  200.                                
   44       11052             3.         1.                     200.200.  200.                                
   50        81 4          2.498         1.                     500.500.  500.                                
   52       147 1      .16 1.64627.714                          10581539  1539                                
   52       147 2      .16 1.64627.714                          10581539  1539                                
   53        52 1         1.6275        .95                     10351242  1449                                
   54        52 1          2.186        .95                     560.672.  784.                                
   56        59 3          3.385         1.                     550.550.  251.                                
   57        58 2          3.606         1.                     550.550.   73.                                
   60        62 1     .076  1.85 927.8                          41334174  4174                                
   60        63 2     .076  1.85 929.1                          41334174  4174                                
   60        64 3     .082 1.899954.57                          41334174  4174                                
   60     43810 2           .806      .9524                     16501815  1880                                
   60     43862 1           .743      .9524                     16501815  1880                                
   60     43899 3            .74      .9524                     16501815  1880                                
   60     43915 4           .746      .9524                     16501815  1880                                
   60     43921 5           .731      .9524                     16501980  2309                                
   61     43421 1     .116 1.999 245.8                          30963622  3622                                
   61     43422 2     .116 1.999 245.8                          30963622  3622                                
   61     43810 2          -.164         1.                     16501815  1880                                
   61     43862 1          -.121         1.                     16501815  1880                                
   61     43899 3          -.117         1.                     16501815  1880                                
   61     43915 4          -.123         1.                     16501815  1880                                
   61     43921 5          -.114         1.                     16501980  2309                                
   65        58 2           .823         1.                     16501815  1881                                
   65        59 3           .773         1.                     16501833  2598                                
   65        68 1           .843         1.                     16501815  1995                                
   66        68 1           -.17      .9859 .8381.053        99916501815321995                                
   67        68 1          3.649         1.                     550.550.  1650                                
   72        69 1 T   .064  1.53  760.                          41334174  4174                                
   72        70 2     .063  1.53 755.7                          41334174  4174                                
   72        71 3     .064  1.54  760.                          41334174  4174                                
   76        73 1 T   .072  1.75 877.5                          41334174  4174                                
   76        74 2     .072  1.75  873.                          41334174  4174                                
   76        75 3 T   .078  1.79 898.2                          41334174  4174                                
   76        80 3           .697         1.                     16501815  1995                                
   76        81 4          1.028         1.                     15001650  1650                                
   76     41512 5           .993         1.                     15001650  1650                                
   76     41514 6           .983         1.                     15001650  1650                                
   76     41516 7           .931         1.                     15001800  1800                                
   76     41518 1           .839         1.                     16501650  1650                                
   76     41520 2           .817         1.                     16501815  1815                                
   77        80 3           -.03      1.051  .88 1.16         7716501815321995                                
   77       104 1 T   .167  2.54 216.6                          18552337  2337                                
   77       598 1 T   .106 1.441 133.4                          18552252  2252                                
   77      3383 1     .114 1.712259.62                          27282728  2728                                
   77     41518 1          -.165      1.051  .88 1.16         7716501650331650                                
   77     41520 2          -.162      1.051  .88 1.16         7716501815331815                                
   78        81 4          -.107      1.051 .8591.115         7815001650321650                                
   78        86 2     .187 2.602  60.1                          12801613  1613                                
   78       449 1 T  .0742 .6448 11.34                          11841184  1392                                
   78       449 2 T  .0742 .6448 11.34                          11841184  1392                                
   78       464 3 T  .1089  .97317.073                          912.1103  1103                                
   78       471 1    .0922 .8014 14.08                          11841392  1392                                
   78       471 2    .0922 .8014 14.08                          11841392  1392                                
   78     41512 5          -.093      1.051 .8591.115         7815001650331650                                
   78     41820 1     .001  .001                                99999999  9999                                
   78     41823 1     .001  .001                                99999999  9999                                
   79        80 3          3.545         1.                     550.550.  550.                                
   82        86 1 T   .187 2.602  60.1                          12801613  1613                                
   82       449 3 T    .06   .6312.845                          13501350  1350                                
   82       449 4 T    .06   .6312.845                          13501350  1350                                
   82     41514 6          -.092       1.02 .8591.115         8215001650331650                                
   82     41516 7          -.058       1.02 .8591.115         8215001800331800                                
   82     41821 1     .001  .001                                99999999  9999                                
   82     41822 1     .001  .001                                99999999  9999                                
   84      1780 1       .7  1.78  .454                          120.120.  120.                                
   84      1780 2       .7  1.78  .454                          120.120.  120.                                
   84     11797 1      .32  .815 .2079                          122.130.  122.                                
   84     21797 1      .32  .815 .2079                          122.130.  122.                                
   84     42417 1     .004-1.667         1.                     300.359.  419.                                
   85      1103 3 T  .0058.1006910.041                          27283377  3377                                
   85      1103 4 T .00564.09795 9.691                          27283377  3377                                
   86        48 1         .71475      1.013                     10501050  1050                                
   86       488 1    .09481.4987 41.91                          20202390  2390                                
   86       488 2    .09481.4987 41.91                          20202390  2390                                
   86     41522 1           -.25      .9704 .8951.048       -122750.750.33750.                                
   86     41524 2          -.254      .9704 .8951.048       -122750.750.33750.                                
   86     41526 3           .236      .9704 .8951.048       -122750.900.331050                                
   87     42417 1     .121 4.833      1.037   .9  1.1        -84300.359.21419.                                
   87     42426 1          8.333         1.                     150.180.  180.                                
   87     42428 2         11.458         1.                     120.144.  144.                                
   90      2608 1          4.847      1.005                     225.270.  304.                                
   90      2618 2          4.861      1.005                     225.270.  304.                                
   90      2628 3           4.65      1.005                     225.270.  304.                                
   90      3032 1 T   .225 2.46841.546                          747.747.  747.                                
   90     42441 4          3.081      1.005                     400.480.  560.                                
   91      2608 1            9.7         1.                      75. 75.   75.                                
   95      2618 2          9.773         1.                      75. 75.   75.                                
   96      2628 3           9.83         1.                      75. 75.   75.                                
   99       101 1     .198 3.098317.55                          20002000  2000                                
   99       556 1     .001  .001       1.05                     99999999  9999                                
  100        20 1            .79         1.                     16201620  1620                                
  100       214 9          2.979      1.028  .95 1.05       -213560.717.32717.                                
  100       535 1 T   .153 2.356 203.8                          17321732  1732                                
  100      3110 1    .12531.8381160.42                          19922390  2390                                
  100      4598 1     .006  .097   7.4                          18552337  2337                                
  100      4598 2     .006  .086   7.2                          18552337  2337                                
  100      4598 3    .0064 .08247.1767                          19922390  2390                                
  101       102 1     .156  2.46 208.5                          18552337  2337                                
  101       103 1      .15  2.39 202.6                          18552337  2337                                
  102       12151          2.911       1.05                     560.717.  717.                                
  102      1503 1     .129 1.993 167.7                          18552337  2337                                
  103       12451          2.946       1.05                     560.717.  717.                                
  103       17654         2.9116       1.05                     560.728.  728.                                
  103       609 1      .06  .946 76.26                          18552337  2337                                
  103      6609 1     .024  .368  31.7                          18552337  2337                                
  103      6609 2     .017  .26738.833                          24773464  3464                                
  104        27 1D    .001  .001                                99999999  9999                                
  104       598 1     .075  1.15  98.9                          18552252  2252                                
  104       609 1     .148 2.347193.31                          18552337  2337                                
  104      9626 1     .098  1.68252.04                          24732598  2598                                
  104     4166457         4.7375       1.05                     250.263.  270.                                
  104     4166659         4.9492       1.05                     250.270.  283.                                
  105        10 1           1.97      1.075                     777.777.  777.                                
  105        11 1            .95      1.075                     14771477  1477                                
  105        27 1     .093 1.456122.54                          18552337  2337                                
  105      9601 1     .092 1.363115.34                          18552337  2337                                
  105      9608 1 T   .101 1.518127.82                          18552337  2337                                
  105     4240158          3.988       1.05                     400.400.  400.                                
  106       108 1     .019  .389  42.1                          25982598  2598                                
  106       109 1     .001  .001                                99999999  9999                                
  106       13951          1.962       1.05                     560.644.  672.                                
  106       14153          3.042       1.05                     560.672.  784.                                
  106       14255           2.93       1.05                     560.716.  716.                                
  107       11052          2.141       1.05                     600.720.  840.                                
  107       17954           2.15       1.05                     600.720.  840.                                
  107     4240756          2.142       1.05                     600.720.  840.                                
  107     4240858          2.114       1.05                     600.720.  840.                                
  108     4243111          2.327       1.05                     600.660.  684.                                
  108     4243212            2.3       1.05                     600.660.  684.                                
  108     4243313           2.27       1.05                     600.720.  840.                                
  108     4243414          2.288       1.05                     600.720.  840.                                
  109       107 1     .033  .67372.576                          25982598  2598                                
  109      9626 1     .012  .19329.698                          24732598  2598                                
  112       895 1     .001  .001       1.05                     99999999  9999                                
  113       895 2     .001  .001       1.05                     99999999  9999                                
  114       895 1     .001  .001       1.05                     99999999  9999                                
  115      6609 1     .263  4.25  659.                          29093667  3667                                
  116       172 1D    .125  .722  .207                          145.145.  145.                                
  116       173 1 T   .625 3.608 1.033                          153.193.  146.                                
  117      4353 1D    .135 2.435361.21                          27163395  2716                                
  117      4353 2D    .135 2.435361.21                          27163395  2716                                
  119       118 4         15.049         1.                     999.999.  999.                                
  120       12151          -.522      1.0091.009 1.11        120560.717.10717.                                
  120       126 1       .6  5.95  92.8                          776.977.  977.                                
  120       126 2     .606  6.02  93.8                          776.977.  977.                                
  120       164 2          8.275       .957                     150.160.  160.                                
  120       697 1     .394  4.39 74.85                          853.1075  1075                                
  120     42000 1          7.754       .957                     150.160.  160.                                
  120     42002 3          8.027       .957                     150.161.  161.                                
  120     42004 4            7.2       .957                     150.150.  150.                                
  120     42006 5           4.54       .957                     225.270.  315.                                
  120     42008 6          4.556       .957                     225.270.  315.                                
  122      6609 1     .079 1.214 103.2                          18552337  2337                                
  122     41522 1         1.8016       1.05                     750.750.  750.                                
  122     41524 2         1.7995       1.05                     750.750.  750.                                
  122     41526 3         1.2804       1.05                     750.900.  1050                                
  123       120 1 T   .359 3.945  66.7                          853.1075  1075                                
  123       12451          -.528      .9842  .95 1.11        123560.717.17717.                                
  123       162 1          5.563      1.004                     149.176.  176.                                
  123       17654          -.413      .9842  .95 1.11        123560.728.17728.                                
  123     41504 2            5.6      1.004                     149.176.  176.                                
  123     41505 3         6.0166      1.004                     149.176.  181.                                
  123     41506 4         5.6033      1.004                     149.176.  181.                                
  123     41507 5           5.63      1.004                     149.194.  194.                                
  125       112 1     .308 3.958444.84                          12992252  2252                                
  126        86 1     .109 1.826  51.2                          17072150  2150                                
  126        86 2     .109 1.824  51.2                          17072150  2150                                
  126       123 1     .252 2.761  46.5                          853.1075  1075                                
  126       442 1     .116 1.13217.708                          776.977.  977.                                
  129       442 1 T   .067   .66  10.1                          776.977.  977.                                
  129     41660 1          2.436         1.                     500.590.  615.                                
  129     41662 2          2.339         1.                     500.590.  615.                                
  130       113 2     .308 3.958444.84                          12992252  2252                                
  131        22 1         3.6933         1.                     378.378.  378.                                
  131      3012 1     .038  .427 6.673                          853.1075  1075                                
  131     4202211          2.686         1.                     400.480.  560.                                
  131     4202413          2.526         1.                     400.480.  560.                                
  134        12 1            .89       .999                     11801180  1180                                
  134        13 1           5.34       .999                     99999999  9999                                
  134       120 1      .56  6.16 105.3                          853.1075  1075                                
  134       120 2      .55  6.13 107.7                          853.1075  1075                                
  134      3012 1     .071  .75512.922                          853.1075  1075                                
  134      3012 2     .071  .75512.792                          853.1075  1075                                
  136        16 1            .96         1.                     12801280  1280                                
  136        17 1           7.68         1.                     99999999  9999                                
  136       120 1 T    .44   4.3  66.6                          776.977.  977.                                
  136       120 2 T    .44  4.33  66.6                          776.977.  977.                                
  136       131 1     .358 3.38352.966                          776.956.  956.                                
  136       138 1      .65  6.46 100.8                          776.977.  977.                                
  136       138 2      .56  6.19 105.7                          853.1075  1075                                
  136       367 1 T    .22  2.18  33.4                          776.977.  977.                                
  136       367 2 T    .18  1.7934.299                          11321132  1132                                
  136      4360 1D    .456 4.944 83.45                          853.1075  853.                                
...
99999
DCSC
(De ) O  (Pa )NcEPB      (Xmin)(Xmax)( Xv )C ( Vsp) (Ext)Nst(Cn)(Ce)(Cq)(1)(2)(3)(4)(5)(6)(7)(8)(9)(10
   62       65 1 T         -.73  -.73  -.73X   -.73    62   999999999999
   63       65 2 T         -.73  -.73  -.73X   -.73    63   999999999999
   64       65 3 T         -.73  -.73  -.73X   -.73    64   999999999999
   65       69 1          -.778 -.778 -.778X  -.778    65   999999999999
   65       70 2          -.778 -.778 -.778X  -.778    65   999999999999
   65       71 3          -.778 -.778 -.778X  -.778    65   999999999999
   72       73 1          -.915 -.915 -.915X  -.915    72   999999999999
   72       74 2          -.915 -.915 -.915X  -.915    72   999999999999
   72       75 3          -.915 -.915 -.915X  -.915    72   999999999999
   78       82 1                       1.26X   1.26    78   999999999999
  114      115 1         -2.124-2.124-2.124X -2.124   114   999999999999
  122      125 1         -2.051-2.051-2.051X -2.051   122   999999999999
  122      130 2         -2.051-2.051-2.051X -2.051   122   999999999999
  127      129 1                        .76X    .76   127   999999999999
  128      129 2                        .76X    .76   128   999999999999
  225     4504 1          -5.93 -5.93 -5.93X  -5.93   225   999999999999
  225     4505 2          -9.53 -9.53 -9.53X  -9.53   225   999999999999
  231     4507 1          -5.93 -5.93 -5.93X  -5.93   231   999999999999
  231     4511 2         -11.27-11.27-11.27X -11.27   231   999999999999
  233       92 1          -1.86 -1.86 -1.86X  -1.86   233   999999999999
  233       93 2          -1.27 -1.27 -1.27X  -1.27   233   999999999999
  233       94 3          -1.27 -1.27 -1.27X  -1.27   233   999999999999
  235     7236 1          -.637 -.637 -.637X  -.637   235   999999999999
  235     7237 2          -.637 -.637 -.637X  -.637   235   999999999999
  277    45073 1                     1.5753X 1.5753   277   999999999999
  277    45074 2                     1.5753X 1.5753   277   999999999999
  299     3005 1          -.985 -.985 -.986X  -.986   299   999999999999
 3007     3006 1          -.985 -.985 -.986X  -.986  3007   999999999999
 3007     3050 1         -.8847-.8847 -.856X  -.856  3007   999999999999
 4502     4540 2         -6.127-6.127-6.127X -6.127  4502   999999999999
 4502     4541 1         -5.959-5.959-5.959X -5.959  4502   999999999999
 4510      231 1          -6.51 -6.51 -6.51X  -6.51  4510   999999999999
 4522     4524 1          -5.73 -5.73 -5.73X  -5.73  4522   999999999999
 4531     4588 3         -1.675-1.675-1.675X -1.675  4531   999999999999
 4565     4496 3          -1.47 -1.47 -1.47X  -1.47  4565   999999999999
 4565     4497 2         -1.629-1.629-1.629X -1.629  4565   999999999999
 4565     4563 1         -1.628-1.628-1.628X -1.628  4565   999999999999
 4574     4565 3         -1.515-1.515-1.515X -1.515  4574   999999999999
 4578     4565 1         -2.064-2.064-2.064X -2.064  4578   999999999999
 4579     4565 2         -2.064-2.064-2.064X -2.064  4579   999999999999
 5158     5157 6 T                    16.28X  16.28  5158   999999999999
 5160     5159 7 T                    16.28X  16.28  5160   999999999999
 5166     6715 5 T                    16.28X  16.28  5166   999999999999
 5436     5435 3         -1.756-1.756-1.756X -1.756  5436   999999999999
 5436     5437 1         -1.908-1.908-1.908X -1.908  5436   999999999999
 5436     5575 2         -1.908-1.908-1.908X -1.908  5436   999999999999
 5436     5576 4         -1.756-1.756-1.756X -1.756  5436   999999999999
 5570     5577 2         -1.539-1.539-1.539X -1.539  5570   999999999999
 5580     6517 1         -1.096-1.096-1.096X -1.096  5580   999999999999
 6082     6444 5 T        -.598 -.598 -.598X  -.598  6082   999999999999
 6360     6080 5          -.598 -.598 -.598X  -.598  6360   999999999999
 6360     6443 2          -.554 -.554 -.554X  -.554  6360   999999999999
 6360     6446 2           -.85  -.85  -.85X   -.85  6360   999999999999
 6400     6507 4           -.72  -.72  -.72X   -.72  6400   999999999999
 6400     6509 3           -.72  -.72  -.72X   -.72  6400   999999999999
 6410     6430 1                         .8X     .8  6410   999999999999
 6440     7306 1          -1.58 -1.58 -1.58X  -1.58  6440   999999999999
 6444     6442 1         -.8847-.8847-.8847X -.8847  6444   999999999999
 6444     6445 2          -.554 -.554 -.554X  -.554  6444   999999999999
 6489     6487 1          -5.53 -5.53 -5.53X  -5.53  6489   999999999999
 6700     6701 1           -.79  -.79  -.79X   -.79  6700   999999999999
 6700     6702 1         -1.096-1.096-1.096X -1.096  6700   999999999999
 6700     6703 2           -.79  -.79  -.79X   -.79  6700   999999999999
 7100     7101 1          -.953 -.953 -.953X  -.953  7100   999999999999
 7100     7102 1          -.953 -.953 -.953X  -.953  7100   999999999999
 7100     7103 2           -.95  -.95  -.95X   -.95  7100   999999999999
 7100     7104 2           -.95  -.95  -.95X   -.95  7100   999999999999
 7100     7105 3          -.952 -.952 -.952X  -.952  7100   999999999999
 7100     7235 1          -.536 -.536 -.536X  -.536  7100   999999999999
 7113     7238 1         -1.412-1.412-1.412X -1.412  7113   999999999999
 7190     7197 2           -.85  -.85  -.85X   -.85  7190   999999999999
 7200     7201 1           -.95  -.95  -.95X   -.95  7200   999999999999
 7200     7203 2           -.95  -.95  -.95X   -.95  7200   999999999999
 7200     7209 3          -.952 -.952 -.952X  -.952  7200   999999999999
 7300     7301 1           -.95  -.95  -.95X   -.95  7300   999999999999
 7300     7302 1           -.95  -.95  -.95X   -.95  7300   999999999999
 7300     7303 2           -.95  -.95  -.95X   -.95  7300   999999999999
 7300     7304 2           -.95  -.95  -.95X   -.95  7300   999999999999
 7300     7305 3          -.952 -.952 -.952X  -.952  7300   999999999999
 7592     5590 1          -1.59  -.53 -.637X  -.637  7592   999999999999
 7592     7591 1           -.95  -.95  -.95X   -.95  7592   999999999999
 7594     5590 2          -1.59  -.53 -.637X  -.637  7594   999999999999
 7594     7593 2          -.952 -.952 -.952X  -.952  7594   999999999999
 8100     8101 1         -1.971-1.971-1.971X -1.971  8100   999999999999
 8100     8102 2         -1.971-1.971-1.971X -1.971  8100   999999999999
 8100     8103 1          -.911 -.911 -.911X  -.911  8100   999999999999
 8100     8104 2          -.911 -.911 -.911X  -.911  8100   999999999999
 8200     8201 1           -.91  -.91  -.91X   -.91  8200   999999999999
 8200     8202 2           -.91  -.91  -.91X   -.91  8200   999999999999
 8200     8203 1         -1.273-1.273-1.273X -1.273  8200   999999999999
 8200     8204 2         -1.273-1.273-1.273X -1.273  8200   999999999999
 8300     8301 1         -1.273-1.273-1.273X -1.273  8300   999999999999
 8300     8302 2         -1.273-1.273-1.273X -1.273  8300   999999999999
 8300     8303 1         -1.219-1.219-1.219X -1.219  8300   999999999999
 8300     8304 2         -1.219-1.219-1.219X -1.219  8300   999999999999
 8400     8401 1         -1.219-1.219-1.219X -1.219  8400   999999999999
 8400     8402 2         -1.219-1.219-1.219X -1.219  8400   999999999999
 8400     8403 1          -.832 -.832 -.832X  -.832  8400   999999999999
 8400     8404 2          -.832 -.832 -.832X  -.832  8400   999999999999
 8500     8405 1          -.832 -.832 -.832X  -.832  8500   999999999999
 8500     8406 2          -.832 -.832 -.832X  -.832  8500   999999999999
 9245    10617 1                        30.X    30.  9245   999999999999
 9301    10618 2                        30.X    30.  9301   999999999999
 9753     1309 6                     13.127X 13.127  9753   999999999999
 9754     1343 7                     13.127X 13.127  9754   999999999999
41003    41072 1                        21.X    21. 41003   999999999999
43166    10619 1                     17.328X 17.328 43166   999999999999
43167    10620 1                     15.753X 15.753 43167   999999999999
43672     4591 1         -1.279-1.279-1.279X -1.279 43672   999999999999
43673     4595 2         -1.356-1.356-1.356X -1.356 43673   999999999999
43797     6898 1          -9.88 -9.88 -9.88X  -9.88 43797   999999999999
43798     6899 2          -9.88 -9.88 -9.88X  -9.88 43798   999999999999
43799     6934 3         -9.565-9.565-9.565X -9.565 43799   999999999999
43800     4508 1          -6.51 -6.51 -6.51X  -6.51 43800   999999999999
43952     5572 5          -1.88 -1.88 -1.88X  -1.88 43952   999999999999
43953     5574 6          -2.11 -2.11 -2.11X  -2.11 43953   999999999999
43954     6513 1          -1.37 -1.37 -1.37X  -1.37 43954   999999999999
43955     6512 1          -1.37 -1.37 -1.37X  -1.37 43955   999999999999
43956     6515 2          -1.14 -1.14 -1.14X  -1.14 43956   999999999999
43957     6514 2          -1.14 -1.14 -1.14X  -1.14 43957   999999999999
43958     6510 1           -.88  -.88  -.88X   -.88 43958   999999999999
43959     6511 2           -.72  -.72  -.72X   -.72 43959   999999999999
99999
DBSH
(NFr) O (NTo) Nc C (Vmn (Vmx Bctrl (Qini) T A (Extr
   27            D 1000 1100    27  -136. C         
(G  O E (U) UOp (Sht ) M
10        1   1  -136. S
FBAN
(NFr) O (NTo) Nc C (Vmn (Vmx Bctrl (Qini) T A (Extr
   27      87  1 D 1000 1100    27  -136. C      27 
(G  O E (U) UOp (Sht ) M
10        1   1  -136. S
FBAN
(NFr) O (NTo) Nc C (Vmn (Vmx Bctrl (Qini) T A (Extr
   27    3010  1 F 1000 1100    27  -240. C      27 
(G  O E (U) UOp (Sht ) M
10        1   1  -240. S
FBAN
(NFr) O (NTo) Nc C (Vmn (Vmx Bctrl (Qini) T A (Extr
   27    3010  2 F 1000 1100    27  -240. C      27 
(G  O E (U) UOp (Sht ) M
10        1   1  -240. S
FBAN
(NFr) O (NTo) Nc C (Vmn (Vmx Bctrl (Qini) T A (Extr
   56            D 0800 1200    56  -360. C         
(G  O E (U) UOp (Sht ) M
10        2   2  -180. S
FBAN
(NFr) O (NTo) Nc C (Vmn (Vmx Bctrl (Qini) T A (Extr
   57            D 0800 1200    57  -360. C         
(G  O E (U) UOp (Sht ) M
10        3   2  -180. S
FBAN
(NFr) O (NTo) Nc C (Vmn (Vmx Bctrl (Qini) T A (Extr
   60      62  1 F 0900 1046    60  -330. C      60 
(G  O E (U) UOp (Sht ) M
10        1   1  -330. S
FBAN
(NFr) O (NTo) Nc C (Vmn (Vmx Bctrl (Qini) T A (Extr
   60      63  2 F 0900 1046    60  -330. C      60 
(G  O E (U) UOp (Sht ) M
10        1   1  -330. S
FBAN
(NFr) O (NTo) Nc C (Vmn (Vmx Bctrl (Qini) T A (Extr
   60      64  3 F 0900 1046    60  -330. C      60 
(G  O E (U) UOp (Sht ) M
10        1   1  -330. S
FBAN
(NFr) O (NTo) Nc C (Vmn (Vmx Bctrl (Qini) T A (Extr
   60      62  1 F 0900 1046    62  -150. C      62 
(G  O E (U) UOp (Sht ) M
10        1   1  -150. S
FBAN
(NFr) O (NTo) Nc C (Vmn (Vmx Bctrl (Qini) T A (Extr
   60      63  2 F 0900 1046    63  -150. C      63 
(G  O E (U) UOp (Sht ) M
10        1   1  -150. S
FBAN
(NFr) O (NTo) Nc C (Vmn (Vmx Bctrl (Qini) T A (Extr
   60      64  3 F 0900 1046    64  -150. C      64 
(G  O E (U) UOp (Sht ) M
10        1   1  -150. S
FBAN
(NFr) O (NTo) Nc C (Vmn (Vmx Bctrl (Qini) T A (Extr
   65            D 0900 1100    65  -330. C         
(G  O E (U) UOp (Sht ) M
10        1   1  -330. S
FBAN
(NFr) O (NTo) Nc C (Vmn (Vmx Bctrl (Qini) T A (Extr
   67            D 0800 1200    67  -360. C         
(G  O E (U) UOp (Sht ) M
10        3   2  -180. S
FBAN
(NFr) O (NTo) Nc C (Vmn (Vmx Bctrl (Qini) T A (Extr
   72      69  1 F 0900 1046    69  -330. C      69 
(G  O E (U) UOp (Sht ) M
10        1   1  -330. S
FBAN
(NFr) O (NTo) Nc C (Vmn (Vmx Bctrl (Qini) T A (Extr
   72      70  2 F 0900 1046    70  -330. C      70 
(G  O E (U) UOp (Sht ) M
10        1   1  -330. S
FBAN
(NFr) O (NTo) Nc C (Vmn (Vmx Bctrl (Qini) T A (Extr
   72      71  3 F 0900 1046    71  -330. C      71 
(G  O E (U) UOp (Sht ) M
10        1   1  -330. S
FBAN
(NFr) O (NTo) Nc C (Vmn (Vmx Bctrl (Qini) T A (Extr
   72            D 0900 1100    72  -660. C         
(G  O E (U) UOp (Sht ) M
10        2   2  -330. S
FBAN
(NFr) O (NTo) Nc C (Vmn (Vmx Bctrl (Qini) T A (Extr
   72      69  1 F 0900 1046    72  -330. C      72 
(G  O E (U) UOp (Sht ) M
10        1   1  -330. S
FBAN
(NFr) O (NTo) Nc C (Vmn (Vmx Bctrl (Qini) T A (Extr
   72      70  2 F 0900 1046    72  -330. C      72 
(G  O E (U) UOp (Sht ) M
10        1   1  -330. S
FBAN
(NFr) O (NTo) Nc C (Vmn (Vmx Bctrl (Qini) T A (Extr
   72      71  3 F 0900 1046    72  -330. C      72 
(G  O E (U) UOp (Sht ) M
10        1   1  -330. S
FBAN
(NFr) O (NTo) Nc C (Vmn (Vmx Bctrl (Qini) T A (Extr
   76      73  1 F 0900 1046    76  -330. C      76 
(G  O E (U) UOp (Sht ) M
10        1   1  -330. S
FBAN
(NFr) O (NTo) Nc C (Vmn (Vmx Bctrl (Qini) T A (Extr
   76      74  2 F 0900 1046    76  -330. C      76 
(G  O E (U) UOp (Sht ) M
10        1   1  -330. S
FBAN
(NFr) O (NTo) Nc C (Vmn (Vmx Bctrl (Qini) T A (Extr
   76      75  3 F 0900 1046    76  -330. C      76 
...